[TITLE]

[JUNCTIONS]
;ID                      Elevation       Demand Pattern                 
 NODE0                              0               0                            ;
 NODE1                              0               0                            ;
 NODE2                              0               0                            ;
 NODE3                   6.6928598429    35.289998016 B1003                      ;
 NODE4                              0               0                            ;
 NODE5                   6.6928598429    38.704646789 B1004                      ;
 NODE6                              0               0                            ;
 NODE7                   6.6928598429    27.428364795 B1013                      ;
 NODE8                              0               0                            ;
 NODE9                   6.6928598429    63.861873098 B1008                      ;
 NODE10                             0               0                            ;
 NODE11                             0               0                            ;
 NODE12                  6.6928598429    104.39295993 B1011                      ;
 NODE13                             0               0                            ;
 NODE14                             0               0                            ;
 NODE15                             0               0                            ;
 NODE16                  6.6928598429    114.35102868 B1000                      ;
 NODE17                  6.6928598429    51.013264459 B1007                      ;
 NODE18                             0               0                            ;
 NODE19                  6.6928598429    64.258925281 B1005                      ;
 NODE20                             0               0                            ;
 NODE21                             0               0                            ;
 NODE22                  6.6928598429    182.83458918 B1012                      ;
 NODE23                             0               0                            ;
 NODE24                             0               0                            ;
 NODE25                  6.6928598429    40.213445084 B1001                      ;
 NODE26                             0               0                            ;
 NODE27                  6.6928598429    47.233327678 B1010                      ;
 NODE28                  6.6928598429     37.57701859 B1002                      ;
 NODE29                             0               0                            ;
 NODE30                             0               0                            ;
 NODE31                             0               0                            ;
 NODE32                             0               0                            ;
 NODE33                             0               0                            ;
 NODE34                  6.6928598429    56.889636766 B1006                      ;
 NODE35                             0               0                            ;

[RESERVOIRS]
;ID                                   Head                  Pattern
 NODE36                   262.4671916                reservoir   ;

[TANKS]
;ID                              Elevation           Init Level            Min Level            Max Level             Diameter           Min Volume Volume Curve        

[PIPES]
;ID                   Node1                Node2                              Length             Diameter            Roughness           Minor Loss               Status
 PIPE0                NODE0                NODE32                  92.580365337    5.2165354331             100               0                 Open   ;
 PIPE1                NODE0                NODE15                  74.116591135    1.4645669291             100               0                 Open   ;
 PIPE2                NODE0                NODE23                  140.93641521    5.2165354331             100               0                 Open   ;
 PIPE3                NODE1                NODE20                  31.287408447    4.2165354331             100               0                 Open   ;
 PIPE4                NODE1                NODE30                   198.1153484    2.7677165354             100               0                 Open   ;
 PIPE5                NODE1                NODE22                  97.167667371    3.2480314961             100               0                 Open   ;
 PIPE6                NODE2                NODE6                    78.69882708    5.2165354331             100               0                 Open   ;
 PIPE7                NODE2                NODE28                  57.527045562    1.4645669291             100               0                 Open   ;
 PIPE8                NODE2                NODE21                  118.08527426     6.311023622             100               0                 Open   ;
 PIPE9                NODE3                NODE15                  54.646992363    1.4645669291             100               0                 Open   ;
 PIPE10               NODE4                NODE24                  108.81347703    2.7677165354             100               0                 Open   ;
 PIPE11               NODE4                NODE30                  12.423719018    2.7677165354             100               0                 Open   ;
 PIPE12               NODE4                NODE7                   94.436860712    1.4645669291             100               0                 Open   ;
 PIPE13               NODE5                NODE20                  68.868954151    1.4645669291             100               0                 Open   ;
 PIPE14               NODE6                NODE32                  91.450810536    5.2165354331             100               0                 Open   ;
 PIPE15               NODE8                NODE18                  75.072706403     6.311023622             100               0                 Open   ;
 PIPE16               NODE8                NODE31                  171.89170695     6.311023622             100               0                 Open   ;
 PIPE17               NODE9                NODE29                  73.369392599    2.1456692913             100               0                 Open   ;
 PIPE18               NODE10               NODE31                  135.98780581     6.311023622             100               0                 Open   ;
 PIPE19               NODE10               NODE21                  55.287155089     6.311023622             100               0                 Open   ;
 PIPE20               NODE10               NODE29                  67.762276524    2.1456692913             100               0                 Open   ;
 PIPE21               NODE11               NODE13                  112.13458784    2.1456692913             100               0                 Open   ;
 PIPE22               NODE11               NODE19                  76.672106392    2.1456692913             100               0                 Open   ;
 PIPE23               NODE11               NODE26                  262.62343044    1.6968503937             100               0                 Open   ;
 PIPE24               NODE12               NODE18                  61.543231961    2.7677165354             100               0                 Open   ;
 PIPE25               NODE13               NODE35                  150.01694857    5.2165354331             100               0                 Open   ;
 PIPE26               NODE13               NODE20                  90.017174622    4.2165354331             100               0                 Open   ;
 PIPE27               NODE14               NODE26                   103.4767339    1.6968503937             100               0                 Open   ;
 PIPE28               NODE14               NODE27                   97.68539099    1.6968503937             100               0                 Open   ;
 PIPE29               NODE16               NODE33                  53.126548004    2.7677165354             100               0                 Open   ;
 PIPE30               NODE17               NODE21                  68.578366598    1.6968503937             100               0                 Open   ;
 PIPE31               NODE23               NODE34                  79.088048565    1.6968503937             100               0                 Open   ;
 PIPE32               NODE23               NODE35                  147.43913935    5.2165354331             100               0                 Open   ;
 PIPE33               NODE24               NODE33                  214.51467791    2.7677165354             100               0                 Open   ;
 PIPE34               NODE25               NODE32                  51.496061891    1.6968503937             100               0                 Open   ;
 PIPE35               NODE36               NODE18                  5.5677699306     6.311023622             100               0                 Open   ;

[PUMPS]
;ID                   Node1                Node2                Properties          

[VALVES]
;ID                   Node1                Node2                            Diameter Type              Setting           Minor Loss

[TAGS]
;type      name       tag       

[DEMANDS]
;ID        Demand     Pattern   

[STATUS]
;ID        Setting   
[PATTERNS]
;ID        Multipliers

B1000 0.000000 0.000000 0.000000 0.000000 0.000000 0.000000
B1000 0.000000 0.000000 0.000000 0.000000 0.000000 0.000000
B1000 0.000000 0.000000 0.000000 0.000000 0.000000 0.000000
B1000 0.000000 0.000000 0.000000 0.000000 0.000000 0.000000
B1000 0.000000 0.000000 0.000000 0.000000 0.000000 0.000000
B1000 0.000000 0.000000 0.000000 0.000000 0.000000 0.000000
B1000 0.000000 0.000000 0.000000 0.000000 0.000000 0.000000
B1000 0.000000 0.000000 0.000000 0.000000 0.000000 0.000000
B1000 0.000000 0.000000 0.000000 0.000000 0.000000 0.000000
B1000 0.000000 0.000000 0.000000 0.000000 0.000000 0.000000
B1000 0.000000 0.000000 0.000000 0.000000 0.000000 0.000000
B1000 0.000000 0.000000 0.000000 0.000000 0.000000 0.000000
B1000 0.000000 0.000000 0.000000 0.000000 0.000000 0.000000
B1000 0.000000 0.000000 0.000000 0.000000 0.000000 0.000000
B1000 0.000000 0.000000 0.000000 0.000000 0.000000 0.000000
B1000 0.000000 0.000000 0.000000 0.000000 0.000000 0.000000
B1000 0.000000 0.000000 0.000000 0.000000 0.000000 0.000000
B1000 0.000000 0.000000 0.000000 0.000000 0.000000 0.000000
B1000 0.000000 0.000000 0.000000 0.000000 0.000000 0.000000
B1000 0.000000 0.000000 0.000000 0.000000 0.000000 0.000000
B1000 0.000000 0.000000 0.000000 0.000000 0.000000 0.000000
B1000 0.000000 0.000000 0.000000 0.000000 0.000000 0.000000
B1000 0.000000 0.000000 0.000000 0.000000 0.000000 0.000000
B1000 0.000000 0.000000 0.000000 0.000000 0.000000 0.000000
B1000 0.000000 0.000000 0.000000 0.000000 0.000000 0.000000
B1000 0.000000 0.000000 0.000000 0.000000 0.000000 0.000000
B1000 0.000000 0.000000 0.000000 0.000000 0.000000 0.000000
B1000 0.000000 0.000000 0.000000 0.000000 0.000000 0.000000
B1000 0.000000 0.000000 0.000000 0.000000 0.000000 0.000000
B1000 0.000000 0.000000 0.000000 0.000000 0.000000 0.000000
B1000 0.000000 0.000000 0.000000 0.000000 0.000000 0.000000
B1000 0.000000 0.000000 0.000000 0.000000 0.000000 0.000000
B1000 0.000000 0.000000 0.000000 0.000000 0.000000 0.000000
B1000 0.000000 0.000000 0.000000 0.000000 0.000000 0.000000
B1000 0.000000 0.000000 0.000000 0.000000 0.000000 0.000000
B1000 0.000000 0.000000 0.000000 0.000000 0.000000 0.000000
B1000 0.000000 0.000000 0.000000 0.000000 0.000000 0.000000
B1000 0.000000 0.000000 0.000000 0.000000 0.000000 0.000000
B1000 0.000000 0.000000 0.000000 0.000000 0.000000 0.000000
B1000 0.000000 0.000000 0.000000 0.000000 0.000000 0.000000
B1000 0.000000 0.000000 0.000000 0.000000 0.000000 0.000000
B1000 0.000000 0.000000 0.000000 0.000000 0.000000 0.000000
B1000 0.000000 0.000000 0.000000 0.000000 0.000000 0.000000
B1000 0.000000 0.000000 0.000000 0.000000 0.000000 0.000000
B1000 0.000000 0.000000 0.000000 0.000000 0.000000 0.000000
B1000 0.000000 0.000000 0.000000 0.000000 0.000000 0.000000
B1000 0.000000 0.000000 0.000000 0.000000 0.000000 0.000000
B1000 0.000000 0.000000 0.000000 0.000000 0.000000 0.000000
B1000 0.000000 0.000000 0.000000 0.000000 0.000000 0.000000
B1000 0.000000 0.000000 0.000000 0.000000 0.000000 0.000000
B1000 0.000000 0.000000 0.000000 0.000000 0.000000 0.000000
B1000 0.000000 0.000000 0.000000 0.000000 0.000000 0.000000
B1000 0.000000 0.000000 0.000000 0.000000 0.000000 0.000000
B1000 0.000000 0.000000 0.000000 0.000000 0.000000 0.000000
B1000 0.000000 0.000000 0.000000 0.000000 0.000000 0.000000
B1000 0.000000 0.000000 0.000000 0.000000 0.000000 0.000000
B1000 0.000000 0.000000 0.000000 0.000000 0.000000 0.000000
B1000 0.000000 0.000000 0.000000 0.000000 0.000000 0.000000
B1000 0.000000 0.000000 0.000000 0.000000 0.000000 0.000000
B1000 0.000000 0.000000 0.000000 0.000000 0.000000 0.000000
B1000 0.000000 0.000000 0.000000 0.000000 0.000000 0.000000
B1000 0.000000 0.000000 0.000000 0.000000 0.000000 0.000000
B1000 0.000000 0.000000 0.000000 0.000000 0.000000 0.000000
B1000 0.000000 0.000000 0.000000 0.000000 0.000000 0.000000
B1000 0.000000 0.000000 0.000000 0.000000 0.000000 0.000000
B1000 0.000000 0.000000 0.000000 0.000000 0.000000 0.000000
B1000 0.000000 0.000000 0.000000 0.000000 0.000000 0.000000
B1000 0.000000 0.000000 0.000000 0.000000 0.000000 0.000000
B1000 0.000000 0.000000 0.000000 0.000000 0.000000 0.000000
B1000 0.000000 0.000000 0.000000 0.000000 0.000000 0.000000
B1000 0.000000 0.000000 0.000000 0.000000 0.000000 0.000000
B1000 0.000000 0.000000 0.000000 0.000000 0.000000 0.000000
B1000 0.000000 0.000000 0.000000 0.000000 0.000000 0.000000
B1000 0.000000 0.000000 0.000000 0.000000 0.000000 0.000000
B1000 0.000000 0.000000 0.000000 0.000000 0.000000 0.000000
B1000 0.000000 0.000000 0.000000 0.000000 0.000000 0.000000
B1000 0.000000 0.000000 0.000000 0.000000 0.000000 0.000000
B1000 0.000000 0.000000 0.000000 0.000000 0.000000 0.000000
B1000 0.000000 0.000000 0.000000 0.000000 0.000000 0.000000
B1000 0.000000 0.000000 0.000000 0.000000 0.000000 0.000000
B1000 0.000000 0.000000 0.000000 0.000000 0.000000 0.000000
B1000 0.000000 0.000000 0.000000 0.000000 0.000000 0.000000
B1000 0.000000 0.000000 0.000000 0.000000 0.000000 0.000000
B1000 0.000000 0.000000 0.000000 0.000000 0.000000 0.000000
B1000 0.000000 0.000000 0.000000 0.000000 0.000000 0.000000
B1000 0.000000 0.000000 0.000000 0.000000 0.000000 0.000000
B1000 0.000000 0.000000 0.000000 0.000000 0.000000 0.000000
B1000 0.000000 0.000000 0.000000 0.000000 0.000000 0.000000
B1000 0.000000 0.000000 0.000000 0.000000 0.000000 0.000000
B1000 0.000000 0.000000 0.000000 0.000000 0.000000 0.000000
B1000 0.000000 0.000000 0.000000 0.000000 0.000000 0.000000
B1000 0.000000 0.000000 0.000000 0.000000 0.000000 0.000000
B1000 0.000000 0.000000 0.000000 0.000000 0.000000 0.000000
B1000 0.000000 0.000000 0.000000 0.000000 0.000000 0.000000
B1000 0.000000 0.000000 0.000000 0.000000 0.000000 0.000000
B1000 0.000000 0.000000 0.000000 0.000000 0.000000 0.000000
B1000 0.000000 0.000000 0.000000 0.000000 0.000000 0.000000
B1000 0.000000 0.000000 0.000000 0.000000 0.000000 0.000000
B1000 0.000000 0.000000 0.000000 0.000000 0.000000 0.000000
B1000 0.000000 0.000000 0.000000 0.000000 0.000000 0.000000
B1000 0.000000 0.000000 0.000000 0.000000 0.000000 0.000000
B1000 0.000000 0.000000 0.000000 0.000000 0.000000 0.000000
B1000 0.000000 0.000000 0.000000 0.000000 0.000000 0.000000
B1000 0.000000 0.000000 0.000000 0.000000 0.000000 0.000000
B1000 0.000000 0.000000 0.000000 0.000000 0.000000 0.000000
B1000 0.000000 0.000000 0.000000 0.000000 0.000000 0.000000
B1000 0.000000 0.000000 0.000000 0.000000 0.000000 0.000000
B1000 0.000000 0.000000 0.000000 0.000000 0.000000 0.000000
B1000 0.000000 0.000000 0.000000 0.000000 0.000000 0.000000
B1000 0.000000 0.000000 0.000000 0.000000 0.000000 0.000000
B1000 0.000000 0.000000 0.000000 0.000000 0.000000 0.000000
B1000 0.000000 0.000000 0.000000 0.000000 0.000000 0.000000
B1000 0.000000 0.000000 0.000000 0.000000 0.000000 0.000000
B1000 0.000000 0.000000 0.000000 0.000000 0.000000 0.000000
B1000 0.000000 0.000000 0.000000 0.000000 0.000000 0.000000
B1000 0.000000 0.000000 0.000000 0.000000 0.000000 0.000000
B1000 0.000000 0.000000 0.000000 0.000000 0.000000 0.000000
B1000 0.000000 0.000000 0.000000 0.000000 0.000000 0.000000
B1000 0.000000 0.000000 0.000000 0.000000 0.000000 0.000000
B1000 0.000000 0.000000 0.000000 0.000000 0.000000 0.000000
B1000 0.000000 0.000000 0.000000 0.000000 0.000000 0.000000
B1000 0.000000 0.000000 0.000000 0.000000 0.000000 0.000000
B1000 0.000000 0.000000 0.000000 0.000000 0.000000 0.000000
B1000 0.000000 0.000000 0.000000 0.000000 0.000000 0.000000
B1000 0.000000 0.000000 0.000000 0.000000 0.000000 0.000000
B1000 0.000000 0.000000 0.000000 0.000000 0.000000 0.000000
B1000 0.000000 0.000000 0.000000 0.000000 0.000000 0.000000
B1000 0.000000 0.000000 0.000000 0.000000 0.000000 0.000000
B1000 0.000000 0.000000 0.000000 0.000000 0.000000 0.000000
B1000 0.000000 0.000000 0.000000 0.000000 0.000000 0.000000
B1000 0.000000 0.000000 0.000000 0.000000 0.000000 0.000000
B1000 0.000000 0.000000 0.000000 0.000000 0.000000 0.000000
B1000 0.000000 0.000000 0.000000 0.000000 0.000000 0.000000
B1000 0.000000 0.000000 0.000000 0.000000 0.000000 0.000000
B1000 0.000000 0.000000 0.000000 0.000000 0.000000 0.000000
B1000 0.000000 0.000000 0.000000 0.000000 0.000000 0.000000
B1000 0.000000 0.000000 0.000000 0.000000 0.000000 0.000000
B1000 0.000000 0.000000 0.000000 0.000000 0.000000 0.000000
B1000 0.000000 0.000000 0.000000 0.000000 0.000000 0.000000
B1000 0.000000 0.000000 0.000000 0.000000 0.000000 0.000000
B1000 0.000000 0.000000 0.000000 0.000000 0.000000 0.000000
B1000 0.000000 0.000000 0.000000 0.000000 0.000000 0.000000
B1000 0.000000 0.000000 0.000000 0.000000 0.000000 0.000000
B1000 0.000000 0.000000 0.000000 0.000000 0.000000 0.000000
B1000 0.000000 0.000000 0.000000 0.000000 0.000000 0.000000
B1000 0.000000 0.000000 0.000000 0.000000 0.000000 0.000000
B1000 0.000000 0.000000 0.000000 0.000000 0.000000 0.000000
B1000 0.000000 0.000000 0.000000 0.000000 0.000000 0.000000
B1000 0.000000 0.000000 0.000000 0.000000 0.000000 0.000000
B1000 0.000000 0.000000 0.000000 0.000000 0.000000 0.000000
B1000 0.000000 0.000000 0.000000 0.000000 0.000000 0.000000
B1000 0.000000 0.000000 0.000000 0.000000 0.000000 0.000000
B1000 0.000000 0.000000 0.000000 0.000000 0.000000 0.000000
B1000 0.000000 0.000000 0.000000 0.000000 0.000000 0.000000
B1000 0.000000 0.000000 0.000000 0.000000 0.000000 0.000000
B1000 0.000000 0.000000 0.000000 0.000000 0.000000 0.000000
B1000 0.000000 0.000000 0.000000 0.000000 0.000000 0.000000
B1000 0.000000 0.000000 0.000000 0.000000 0.000000 0.000000
B1000 0.000000 0.000000 0.000000 0.000000 0.000000 0.000000
B1000 0.000000 0.000000 0.000000 0.000000 0.000000 0.000000
B1000 0.000000 0.000000 0.000000 0.000000 0.000000 0.000000
B1000 0.000000 0.000000 0.000000 0.000000 0.000000 0.000000
B1000 0.000000 0.000000 0.000000 0.000000 0.000000 0.000000
B1000 0.000000 0.000000 0.000000 0.000000 0.000000 0.000000
B1000 0.000000 0.000000 0.000000 0.000000 0.000000 0.000000
B1000 0.000000 0.000000 0.000000 0.000000 0.000000 0.000000
B1000 0.000000 0.000000 0.000000 0.000000 0.000000 0.000000
B1000 0.000000 0.000000 0.000000 0.000000 0.000000 0.000000
B1000 0.000000 0.000000 0.000000 0.000000 0.000000 0.000000
B1000 0.000000 0.000000 0.000000 0.000000 0.000000 0.000000
B1000 0.000000 0.000000 0.000000 0.000000 0.000000 0.000000
B1000 0.000000 0.000000 0.000000 0.000000 0.000000 0.000000
B1000 0.000000 0.000000 0.000000 0.000000 0.000000 0.000000
B1000 0.000000 0.000000 0.000000 0.000000 0.000000 0.000000
B1000 0.000000 0.000000 0.000000 0.000000 0.000000 0.000000
B1000 0.000000 0.000000 0.000000 0.000000 0.000000 0.000000
B1000 0.000000 0.000000 0.000000 0.000000 0.000000 0.000000
B1000 0.000000 0.000000 0.000000 0.000000 0.000000 0.000000
B1000 0.000000 0.000000 0.000000 0.000000 0.000000 0.000000
B1000 0.000000 0.000000 0.000000 0.000000 0.000000 0.000000
B1000 0.000000 0.000000 0.000000 0.000000 0.000000 0.000000
B1000 0.000000 0.000000 0.000000 0.000000 0.000000 0.000000
B1000 0.000000 0.000000 0.000000 0.000000 0.000000 0.000000
B1000 0.000000 0.000000 0.000000 0.000000 0.000000 0.000000
B1000 0.000000 0.000000 0.000000 0.000000 0.000000 0.000000
B1000 0.000000 0.000000 0.000000 0.000000 0.000000 0.000000
B1000 0.000000 0.000000 0.000000 0.000000 0.000000 0.000000
B1000 0.000000 0.000000 0.000000 0.000000 0.000000 0.000000
B1000 0.000000 0.000000 0.000000 0.000000 0.000000 0.000000
B1000 0.000000 0.000000 0.000000 0.000000 0.000000 0.000000
B1000 0.000000 0.000000 0.000000 0.000000 0.000000 0.000000
B1000 0.000000 0.000000 0.000000 0.000000 0.000000 0.000000
B1000 0.000000 0.000000 0.000000 0.000000 0.000000 0.000000
B1000 0.000000 0.000000 0.000000 0.000000 0.000000 0.000000
B1000 0.000000 0.000000 0.000000 0.000000 0.000000 0.000000
B1000 0.000000 0.000000 0.000000 0.000000 0.000000 0.000000
B1000 0.000000 0.000000 0.000000 0.000000 0.000000 0.000000
B1000 0.000000 0.000000 0.000000 0.000000 0.000000 0.000000
B1000 0.000000 0.000000 0.000000 0.000000 0.000000 0.000000
B1000 0.000000 0.000000 0.000000 0.000000 0.000000 0.000000
B1000 0.000000 0.000000 0.000000 0.000000 0.000000 0.000000
B1000 0.000000 0.000000 0.000000 0.000000 0.000000 0.000000
B1000 0.000000 0.000000 0.000000 0.000000 0.000000 0.000000
B1000 0.000000 0.000000 0.000000 0.000000 0.000000 0.000000
B1000 0.000000 0.000000 0.000000 0.000000 0.000000 0.000000
B1000 0.000000 0.000000 0.000000 0.000000 0.000000 0.000000
B1000 0.000000 0.000000 0.000000 0.000000 0.000000 0.000000
B1000 0.000000 0.000000 0.000000 0.000000 0.000000 0.000000
B1000 0.000000 0.000000 0.000000 0.000000 0.000000 0.000000
B1000 0.000000 0.000000 0.000000 0.000000 0.000000 0.000000
B1000 0.000000 0.000000 0.000000 0.000000 0.000000 0.000000
B1000 0.000000 0.000000 0.000000 0.000000 0.000000 0.000000
B1000 0.000000 0.000000 0.000000 0.000000 0.000000 0.000000
B1000 0.000000 0.000000 0.000000 0.000000 0.000000 0.000000
B1000 0.000000 0.000000 0.000000 0.000000 0.000000 0.000000
B1000 0.000000 0.000000 0.000000 0.000000 0.000000 0.000000
B1000 0.000000 0.000000 0.000000 0.000000 0.000000 0.000000
B1000 0.000000 0.000000 0.000000 0.000000 0.000000 0.000000
B1000 0.000000 0.000000 0.000000 0.000000 0.000000 0.000000
B1000 0.000000 0.000000 0.000000 0.000000 0.000000 0.000000
B1000 0.000000 0.000000 0.000000 0.000000 0.000000 0.000000
B1000 0.000000 0.000000 0.000000 0.000000 0.000000 0.000000
B1000 0.000000 0.000000 0.000000 0.000000 0.000000 0.000000
B1000 0.000000 0.000000 0.000000 0.000000 0.000000 0.000000
B1000 0.000000 0.000000 0.000000 0.000000 0.000000 0.000000
B1000 0.000000 0.000000 0.000000 0.000000 0.000000 0.000000
B1000 0.000000 0.000000 0.000000 0.000000 0.000000 0.000000
B1000 0.000000 0.000000 0.000000 0.000000 0.000000 0.000000
B1000 0.000000 0.000000 0.000000 0.000000 0.000000 0.000000
B1000 0.000000 0.000000 0.000000 0.000000 0.000000 0.000000
B1000 0.000000 0.000000 0.000000 0.000000 0.000000 0.000000
B1000 0.000000 0.000000 0.000000 0.000000 0.000000 0.000000
B1000 0.000000 0.000000 0.000000 0.000000 0.000000 0.000000
B1000 0.000000 0.000000 0.000000 0.000000 0.000000 0.000000
B1000 0.000000 0.000000 0.000000 0.000000 0.000000 0.000000
B1000 0.000000 0.000000 0.000000 0.000000 0.000000 0.000000
B1000 0.000000 0.000000 0.000000 0.000000 0.000000 0.000000
B1000 0.000000 0.000000 0.000000 0.000000 0.000000 0.000000
B1000 0.000000 0.000000 0.000000 0.000000 0.000000 0.000000
B1000 0.000000 0.000000 0.000000 0.000000 0.000000 0.000000
B1000 0.000000 0.000000 0.000000 0.000000 0.000000 0.000000
B1000 0.000000 0.000000 0.000000 0.000000 0.000000 0.000000
B1000 0.000000 0.000000 0.000000 0.000000 0.000000 0.000000
B1000 0.000000 0.000000 0.000000 0.000000 0.000000 0.000000
B1000 0.000000 0.000000 0.000000 0.000000 0.000000 0.000000
B1000 0.000000 0.000000 0.000000 0.000000 0.000000 0.000000
B1000 0.000000 0.000000 0.000000 0.000000 0.000000 0.000000
B1000 0.000000 0.000000 0.000000 0.000000 0.000000 0.000000
B1000 0.000000 0.000000 0.000000 0.000000 0.000000 0.000000
B1000 0.000000 0.000000 0.000000 0.000000 0.000000 0.000000
B1000 0.000000 0.000000 0.000000 0.000000 0.000000 0.000000
B1000 0.000000 0.000000 0.000000 0.000000 0.000000 0.000000
B1000 0.000000 0.000000 0.000000 0.000000 0.000000 0.000000
B1000 0.000000 0.000000 0.000000 0.000000 0.000000 0.000000
B1000 0.000000 0.000000 0.000000 0.000000 0.000000 0.000000
B1000 0.000000 0.000000 0.000000 0.000000 0.000000 0.000000
B1000 0.000000 0.000000 0.000000 0.000000 0.000000 0.000000
B1000 0.000000 0.000000 0.000000 0.000000 0.000000 0.000000
B1000 0.000000 0.000000 0.000000 0.000000 0.000000 0.000000
B1000 0.000000 0.000000 0.000000 0.000000 0.000000 0.000000
B1000 0.000000 0.000000 0.000000 0.000000 0.000000 0.000000
B1000 0.000000 0.000000 0.000000 0.000000 0.000000 0.000000
B1000 0.000000 0.000000 0.000000 0.000000 0.000000 0.000000
B1000 0.000000 0.000000 0.000000 0.000000 0.000000 0.000000
B1000 0.000000 0.000000 0.000000 0.000000 0.000000 0.000000
B1000 0.000000 0.000000 0.000000 0.000000 0.000000 0.000000
B1000 0.000000 0.000000 0.000000 0.000000 0.000000 0.000000
B1000 0.000000 0.000000 0.000000 0.000000 0.000000 0.000000
B1000 0.000000 0.000000 0.000000 0.000000 0.000000 0.000000
B1000 0.000000 0.000000 0.000000 0.000000 0.000000 0.000000
B1000 0.000000 0.000000 0.000000 0.000000 0.000000 0.000000
B1000 0.000000 0.000000 0.000000 0.000000 0.000000 0.000000
B1000 0.000000 0.000000 0.000000 0.000000 0.000000 0.000000
B1000 0.000000 0.000000 0.000000 0.000000 0.000000 0.000000
B1000 0.000000 0.000000 0.000000 0.000000 0.000000 0.000000
B1000 0.000000 0.000000 0.000000 0.000000 0.000000 0.000000
B1000 0.000000 0.000000 0.000000 0.000000 0.000000 0.000000
B1000 0.000000 0.000000 0.000000 0.000000 0.000000 0.000000
B1000 0.000000 0.000000 0.000000 0.000000 0.000000 0.000000
B1000 0.000000 0.000000 0.000000 0.000000 0.000000 0.000000
B1000 0.000000 0.000000 0.000000 0.000000 0.000000 0.000000
B1000 0.000000 0.000000 0.000000 0.000000 0.000000 0.000000
B1000 0.000000 0.000000 0.000000 0.000000 0.000000 0.000000
B1000 0.000000 0.000000 0.000000 0.000000 0.000000 0.000000
B1000 0.000000 0.000000 0.000000 0.000000 0.000000 0.000000
B1000 0.000000 0.000000 0.000000 0.000000 0.000000 0.000000
B1000 0.000000 0.000000 0.000000 0.000000 0.000000 0.000000
B1000 0.000000 0.000000 0.000000 0.000000 0.000000 0.000000
B1000 0.000000 0.000000 0.000000 0.000000 0.000000 0.000000
B1000 0.000000 0.000000 0.000000 0.000000 0.000000 0.000000
B1000 0.000000 0.000000 0.000000 0.000000 0.000000 0.000000
B1000 0.000000 0.000000 0.000000 0.000000 0.000000 0.000000
B1000 0.000000 0.000000 0.000000 0.000000 0.000000 0.000000
B1000 0.000000 0.000000 0.000000 0.000000 0.000000 0.000000
B1000 0.000000 0.000000 0.000000 0.000000 0.000000 0.000000
B1000 0.000000 0.000000 0.000000 0.000000 0.000000 0.000000
B1000 0.000000 0.000000 0.000000 0.000000 0.000000 0.000000
B1000 0.000000 0.000000 0.000000 0.000000 0.000000 0.000000
B1000 0.000000 0.000000 0.000000 0.000000 0.000000 0.000000
B1000 0.000000 0.000000 0.000000 0.000000 0.000000 0.000000
B1000 0.000000 0.000000 0.000000 0.000000 0.000000 0.000000
B1000 0.000000 0.000000 0.000000 0.000000 0.000000 0.000000
B1000 0.000000 0.000000 0.000000 0.000000 0.000000 0.000000
B1000 0.000000 0.000000 0.000000 0.000000 0.000000 0.000000
B1000 0.000000 0.000000 0.000000 0.000000 0.000000 0.000000
B1000 0.000000 0.000000 0.000000 0.000000 0.000000 0.000000
B1000 0.000000 0.000000 0.000000 0.000000 0.000000 0.000000
B1000 0.000000 0.000000 0.000000 0.000000 0.000000 0.000000
B1000 0.000000 0.000000 0.000000 0.000000 0.000000 0.000000
B1000 0.000000 0.000000 0.000000 0.000000 0.000000 0.000000
B1000 0.000000 0.000000 0.000000 0.000000 0.000000 0.000000
B1000 0.000000 0.000000 0.000000 0.000000 0.000000 0.000000
B1000 0.000000 0.000000 0.000000 0.000000 0.000000 0.000000
B1000 0.000000 0.000000 0.000000 0.000000 0.000000 0.000000
B1000 0.000000 0.000000 0.000000 0.000000 0.000000 0.000000
B1000 0.000000 0.000000 0.000000 0.000000 0.000000 0.000000
B1000 0.000000 0.000000 0.000000 0.000000 0.000000 0.000000
B1000 0.000000 0.000000 0.000000 0.000000 0.000000 0.000000
B1000 0.000000 0.000000 0.000000 0.000000 0.000000 0.000000
B1000 0.000000 0.000000 0.000000 0.000000 0.000000 0.000000
B1000 0.000000 0.000000 0.000000 0.000000 0.000000 0.000000
B1000 0.000000 0.000000 0.000000 0.000000 0.000000 0.000000
B1000 0.000000 0.000000 0.000000 0.000000 0.000000 0.000000
B1000 0.000000 0.000000 0.000000 0.000000 0.000000 0.000000
B1000 0.000000 0.000000 0.000000 0.000000 0.000000 0.000000
B1000 0.000000 0.000000 0.000000 0.000000 0.000000 0.000000
B1000 0.000000 0.000000 0.000000 0.000000 0.000000 0.000000
B1000 0.000000 0.000000 0.000000 0.000000 0.000000 0.000000
B1000 0.000000 0.000000 0.000000 0.000000 0.000000 0.000000
B1000 0.000000 0.000000 0.000000 0.000000 0.000000 0.000000
B1000 0.000000 0.000000 0.000000 0.000000 0.000000 0.000000
B1000 0.000000 0.000000 0.000000 0.000000 0.000000 0.000000
B1000 0.000000 0.000000 0.000000 0.000000 0.000000 0.000000
B1000 0.000000 0.000000 0.000000 0.000000 0.000000 0.000000
B1000 0.000000 0.000000 0.000000 0.000000 0.000000 0.000000
B1000 0.000000 0.000000 0.000000 0.000000 0.000000 0.000000
B1000 0.000000 0.000000 0.000000 0.000000 0.000000 0.000000
B1000 0.000000 0.000000 0.000000 0.000000 0.000000 0.000000
B1000 0.000000 0.000000 0.000000 0.000000 0.000000 0.000000
B1000 0.000000 0.000000 0.000000 0.000000 0.000000 0.000000
B1000 0.000000 0.000000 0.000000 0.000000 0.000000 0.000000