[TITLE]

[JUNCTIONS]
;ID                      Elevation       Demand Pattern                 
 NODE0                              0               0                            ;
 NODE1                              0               0                            ;
 NODE2                     6.56167979    742.47169994 B1000                      ;
 NODE3                              0               0                            ;
 NODE4                              0               0                            ;
 NODE5                              0               0                            ;
 NODE6                              0               0                            ;
 NODE7                              0               0                            ;
 NODE8                              0               0                            ;
 NODE9                              0               0                            ;
 NODE10                    6.56167979    84.159180688 B1007                      ;
 NODE11                             0               0                            ;
 NODE12                    6.56167979    213.70936693 B1010                      ;
 NODE13                             0               0                            ;
 NODE14                             0               0                            ;
 NODE15                             0               0                            ;
 NODE16                    6.56167979    15.945615665 B1005                      ;
 NODE17                    6.56167979    16.437960372 B1014                      ;
 NODE18                             0               0                            ;
 NODE19                             0               0                            ;
 NODE20                             0               0                            ;
 NODE21                    6.56167979     119.7032921 B1013                      ;
 NODE22                             0               0                            ;
 NODE23                    6.56167979     16.62854542 B1006                      ;
 NODE24                             0               0                            ;
 NODE25                             0               0                            ;
 NODE26                             0               0                            ;
 NODE27                             0               0                            ;
 NODE28                             0               0                            ;
 NODE29                             0               0                            ;
 NODE30                    6.56167979     164.2843112 B1008                      ;
 NODE31                             0               0                            ;
 NODE32                             0               0                            ;
 NODE33                    6.56167979    190.55328362 B1009                      ;
 NODE34                    6.56167979    110.28521432 B1004                      ;
 NODE35                             0               0                            ;
 NODE36                    6.56167979    20.821416471 B1012                      ;
 NODE37                             0               0                            ;
 NODE38                             0               0                            ;
 NODE39                             0               0                            ;
 NODE40                    6.56167979    60.669573548 B1011                      ;
 NODE41                             0               0                            ;
 NODE42                    6.56167979    60.669573548 B1001                      ;
 NODE43                             0               0                            ;
 NODE44                    6.56167979    203.89423696 B1017                      ;
 NODE45                             0               0                            ;
 NODE46                    6.56167979    55.222017598 B1002                      ;
 NODE47                             0               0                            ;
 NODE48                    6.56167979     117.8292058 B1015                      ;
 NODE49                    6.56167979    42.468701483 B1003                      ;
 NODE50                             0               0                            ;

[RESERVOIRS]
;ID                                   Head                  Pattern
 NODE51                  731.62729659                reservoir   ;

[TANKS]
;ID                              Elevation           Init Level            Min Level            Max Level             Diameter           Min Volume Volume Curve        

[PIPES]
;ID                   Node1                Node2                              Length             Diameter            Roughness           Minor Loss               Status
 PIPE0                NODE0                NODE46                  41.722774534    1.6968503937             100               0                 Open   ;
 PIPE1                NODE0                NODE29                  4.9569249045    2.7677165354             100               0                 Open   ;
 PIPE2                NODE0                NODE28                  173.83988924    1.6968503937             100               0                 Open   ;
 PIPE3                NODE1                NODE18                  217.73917705    8.2716535433             100               0                 Open   ;
 PIPE4                NODE1                NODE39                  132.36370701    8.2716535433             100               0                 Open   ;
 PIPE5                NODE1                NODE9                   163.31266989    2.7677165354             100               0                 Open   ;
 PIPE6                NODE2                NODE4                   136.09028631     6.311023622             100               0                 Open   ;
 PIPE7                NODE3                NODE20                  33.208635883    2.7677165354             100               0                 Open   ;
 PIPE8                NODE3                NODE4                   128.75130345    2.7677165354             100               0                 Open   ;
 PIPE9                NODE4                NODE19                  207.83616558    8.2716535433             100               0                 Open   ;
 PIPE10               NODE5                NODE8                   185.73106146    4.2165354331             100               0                 Open   ;
 PIPE11               NODE5                NODE26                  136.92605951    4.2165354331             100               0                 Open   ;
 PIPE12               NODE6                NODE41                  34.055200051    1.1220472441             100               0                 Open   ;
 PIPE13               NODE6                NODE27                  119.46539143    4.2165354331             100               0                 Open   ;
 PIPE14               NODE6                NODE14                  10.058409712    5.2165354331             100               0                 Open   ;
 PIPE15               NODE7                NODE13                  214.01800382    2.1456692913             100               0                 Open   ;
 PIPE16               NODE7                NODE10                  84.355697296    2.1456692913             100               0                 Open   ;
 PIPE17               NODE8                NODE44                  78.473543049    3.2480314961             100               0                 Open   ;
 PIPE18               NODE8                NODE45                  108.58380335    2.1456692913             100               0                 Open   ;
 PIPE19               NODE9                NODE21                   67.79043036    2.7677165354             100               0                 Open   ;
 PIPE20               NODE11               NODE24                  111.49977009    3.2480314961             100               0                 Open   ;
 PIPE21               NODE11               NODE27                  109.27656067    4.2165354331             100               0                 Open   ;
 PIPE22               NODE11               NODE22                  111.93383589    3.2480314961             100               0                 Open   ;
 PIPE23               NODE12               NODE14                  79.213162653    3.2480314961             100               0                 Open   ;
 PIPE24               NODE13               NODE45                  158.74038454    2.1456692913             100               0                 Open   ;
 PIPE25               NODE14               NODE37                   202.3380058     6.311023622             100               0                 Open   ;
 PIPE26               NODE15               NODE17                  46.983948738    1.1220472441             100               0                 Open   ;
 PIPE27               NODE15               NODE43                  74.964731227    2.7677165354             100               0                 Open   ;
 PIPE28               NODE15               NODE29                  43.476924576    2.7677165354             100               0                 Open   ;
 PIPE29               NODE16               NODE41                  127.31263442    1.1220472441             100               0                 Open   ;
 PIPE30               NODE18               NODE31                  43.703277612    8.2716535433             100               0                 Open   ;
 PIPE31               NODE18               NODE23                  60.849029091    1.1220472441             100               0                 Open   ;
 PIPE32               NODE19               NODE25                  91.564972247    2.1456692913             100               0                 Open   ;
 PIPE33               NODE19               NODE50                  72.773806612    8.2716535433             100               0                 Open   ;
 PIPE34               NODE20               NODE35                  182.92116761    2.7677165354             100               0                 Open   ;
 PIPE35               NODE22               NODE30                  45.985102811    3.2480314961             100               0                 Open   ;
 PIPE36               NODE24               NODE33                  83.294615407    3.2480314961             100               0                 Open   ;
 PIPE37               NODE25               NODE42                  50.149201338    2.1456692913             100               0                 Open   ;
 PIPE38               NODE26               NODE37                  126.88482421    4.2165354331             100               0                 Open   ;
 PIPE39               NODE26               NODE40                  47.174522503    2.1456692913             100               0                 Open   ;
 PIPE40               NODE28               NODE47                  131.37344196    1.6968503937             100               0                 Open   ;
 PIPE41               NODE31               NODE43                  59.645454908    2.7677165354             100               0                 Open   ;
 PIPE42               NODE31               NODE38                  38.416646783    8.2716535433             100               0                 Open   ;
 PIPE43               NODE32               NODE47                  140.24845135    1.6968503937             100               0                 Open   ;
 PIPE44               NODE32               NODE49                   29.61336895    1.6968503937             100               0                 Open   ;
 PIPE45               NODE34               NODE39                  88.904651728    2.7677165354             100               0                 Open   ;
 PIPE46               NODE35               NODE48                  56.733856273    2.7677165354             100               0                 Open   ;
 PIPE47               NODE36               NODE43                  49.633708439    1.1220472441             100               0                 Open   ;
 PIPE48               NODE37               NODE39                  128.16225293    8.2716535433             100               0                 Open   ;
 PIPE49               NODE38               NODE50                  31.285323192    8.2716535433             100               0                 Open   ;
 PIPE50               NODE51               NODE4                   4.6398082755    12.311023622             100               0                 Open   ;

[PUMPS]
;ID                   Node1                Node2                Properties          

[VALVES]
;ID                   Node1                Node2                            Diameter Type              Setting           Minor Loss

[TAGS]
;type      name       tag       

[DEMANDS]
;ID        Demand     Pattern   

[STATUS]
;ID        Setting   
[PATTERNS]
;ID        Multipliers

B1000 0.000000 0.000000 0.000000 0.000000 0.000000 0.000000
B1000 0.000000 0.000000 0.000000 0.000000 0.000000 0.000000
B1000 0.000000 0.000000 0.000000 0.000000 0.000000 0.000000
B1000 0.000000 0.000000 0.000000 0.000000 0.000000 0.000000
B1000 0.000000 0.000000 0.000000 0.000000 0.000000 0.000000
B1000 0.000000 0.000000 0.000000 0.000000 0.000000 0.000000
B1000 0.000000 0.000000 0.000000 0.000000 0.000000 0.000000
B1000 0.000000 0.000000 0.000000 0.000000 0.000000 0.000000
B1000 0.038161 0.038739 0.039616 0.040151 0.040664 0.040792
B1000 0.034803 0.765022 0.810349 0.600419 0.643265 0.758198
B1000 0.845237 0.870650 0.899613 0.914009 0.896426 0.886329
B1000 0.000000 0.000000 0.000000 0.000000 0.000000 0.000000
B1000 0.000000 0.000000 0.000000 0.000000 0.000000 0.000000
B1000 0.000000 0.414169 0.347280 0.446042 0.551285 0.693427
B1000 0.893516 0.809044 0.813301 0.824552 0.793857 0.803311
B1000 0.000000 0.000000 0.000000 0.000000 0.000000 0.000000
B1000 0.000000 0.000000 0.000000 0.000000 0.000000 0.000000
B1000 0.000000 0.337633 0.288113 0.341120 0.403046 0.445207
B1000 0.647244 0.555007 0.589360 0.598943 0.592376 0.608163
B1000 0.000000 0.000000 0.000000 0.000000 0.000000 0.000000
B1000 0.000000 0.000000 0.000000 0.000000 0.000000 0.000000
B1000 0.000000 0.353890 0.301760 0.305910 0.371516 0.426768
B1000 0.692464 0.563413 0.609917 0.630538 0.568397 0.578044
B1000 0.000000 0.000000 0.000000 0.000000 0.000000 0.000000
B1000 0.000000 0.000000 0.000000 0.000000 0.000000 0.000000
B1000 0.000000 0.347173 0.294787 0.287600 0.373441 0.444480
B1000 0.685790 0.597382 0.633169 0.645340 0.597403 0.609917
B1000 0.000000 0.000000 0.000000 0.000000 0.000000 0.000000
B1000 0.000000 0.000000 0.000000 0.000000 0.000000 0.000000
B1000 0.000000 0.000000 0.000000 0.000000 0.000000 0.000000
B1000 0.000000 0.000000 0.000000 0.000000 0.000000 0.000000
B1000 0.000000 0.000000 0.000000 0.000000 0.000000 0.000000
B1000 0.000000 0.000000 0.000000 0.000000 0.000000 0.000000
B1000 0.000000 0.000000 0.000000 0.000000 0.000000 0.000000
B1000 0.000000 0.000000 0.000000 0.000000 0.000000 0.000000
B1000 0.000000 0.000000 0.000000 0.000000 0.000000 0.000000
B1000 0.230786 0.222165 0.213844 0.205673 0.198978 0.192346
B1000 0.105778 0.840745 0.807247 0.769364 0.684656 0.637019
B1000 0.840467 0.550215 0.420779 0.369056 0.416779 0.482556
B1000 0.000000 0.000000 0.001476 0.006439 0.011187 0.015637
B1000 0.020685 0.025755 0.030525 0.034910 0.039231 0.043488
B1000 0.031744 0.512396 0.414939 0.353740 0.334296 0.320670
B1000 0.518920 0.433721 0.480673 0.509444 0.469443 0.467882
B1000 0.000000 0.000000 0.000000 0.000000 0.000000 0.000000
B1000 0.000000 0.001412 0.008984 0.016022 0.023316 0.030781
B1000 0.024514 0.401335 0.343494 0.307707 0.295600 0.285910
B1000 0.356157 0.268113 0.296413 0.309290 0.272990 0.277546
B1000 0.000000 0.000000 0.000000 0.005219 0.009284 0.015551
B1000 0.021819 0.027658 0.033412 0.039359 0.044835 0.050119
B1000 0.032920 0.399752 0.342360 0.289910 0.258765 0.263278
B1000 0.325183 0.293867 0.336606 0.347687 0.309590 0.305654
B1000 0.000000 0.000000 0.000000 0.000000 0.000000 0.000000
B1000 0.000000 0.003102 0.008385 0.013712 0.019059 0.023380
B1000 0.018738 0.388115 0.328606 0.310488 0.286979 0.280134
B1000 0.366682 0.282487 0.258273 0.266209 0.267214 0.287429
B1000 0.000000 0.000000 0.000000 0.000000 0.001326 0.007016
B1000 0.000000 0.000000 0.000000 0.000000 0.000000 0.000000
B1000 0.000000 0.000000 0.000000 0.000000 0.000000 0.000000
B1000 0.000000 0.000000 0.000000 0.000000 0.000000 0.000000
B1000 0.000000 0.000000 0.000000 0.000000 0.000000 0.000000
B1000 0.000000 0.000000 0.000000 0.000000 0.000000 0.000000
B1000 0.000000 0.000000 0.000000 0.000000 0.000000 0.000000
B1000 0.000000 0.000000 0.000000 0.000000 0.000000 0.000000
B1000 0.000000 0.000000 0.000000 0.000000 0.000000 0.000000
B1000 0.598986 0.537466 0.487390 0.445272 0.411880 0.382639
B1000 0.161330 0.927293 0.914565 0.867099 0.783781 0.766198
B1000 0.862051 0.724999 0.490064 0.460652 0.493636 0.586879
B1000 0.000000 0.001797 0.005134 0.010417 0.014653 0.018888
B1000 0.023081 0.027273 0.031466 0.034888 0.038589 0.041862
B1000 0.031188 0.554686 0.445143 0.379431 0.322338 0.344756
B1000 0.514043 0.472502 0.531626 0.602665 0.543584 0.563499
B1000 0.000000 0.000000 0.000000 0.000000 0.000000 0.000000
B1000 0.000000 0.000000 0.000000 0.000000 0.000000 0.000000
B1000 0.000000 0.374682 0.312734 0.319665 0.370831 0.406212
B1000 0.580611 0.617767 0.688443 0.754797 0.769877 0.759075
B1000 0.000000 0.000000 0.000000 0.000000 0.000000 0.000000
B1000 0.000000 0.000000 0.000000 0.000000 0.000000 0.000000
B1000 0.000000 0.317675 0.360093 0.408586 0.461849 0.489893
B1000 0.713021 0.585039 0.612141 0.629275 0.643500 0.671950
B1000 0.000000 0.000000 0.000000 0.000000 0.000000 0.000000
B1000 0.000000 0.000000 0.000000 0.000000 0.000000 0.000000
B1000 0.000000 0.326232 0.338339 0.410854 0.501722 0.571905
B1000 0.815483 0.761214 0.779054 0.785728 0.787803 0.801151
B1000 0.000000 0.000000 0.000000 0.000000 0.000000 0.000000
B1000 0.000000 0.000000 0.000000 0.000000 0.000000 0.000000
B1000 0.000000 0.000000 0.000000 0.000000 0.000000 0.000000
B1000 0.000000 0.000000 0.000000 0.000000 0.000000 0.000000
B1000 0.000000 0.000000 0.000000 0.000000 0.000000 0.000000
B1000 0.000000 0.000000 0.000000 0.000000 0.000000 0.000000
B1000 0.000000 0.000000 0.000000 0.000000 0.000000 0.000000
B1000 0.000000 0.000000 0.000000 0.000000 0.000000 0.000000
B1000 0.000000 0.000000 0.000000 0.000000 0.000000 0.000000
B1000 0.077349 0.083168 0.089906 0.094312 0.098911 0.103746
B1000 0.066483 0.764230 0.616612 0.539391 0.511219 0.489850
B1000 0.715117 0.414832 0.363024 0.391003 0.416287 0.377291
B1000 0.000000 0.000000 0.000000 0.000000 0.002717 0.009177
B1000 0.014289 0.019380 0.024321 0.029177 0.033969 0.038568
B1000 0.028022 0.448074 0.378126 0.356264 0.274680 0.294808
B1000 0.408543 0.408372 0.432908 0.423560 0.404436 0.389933
B1000 0.000000 0.000000 0.000000 0.000000 0.000000 0.000000
B1000 0.000000 0.000000 0.000000 0.000000 0.000000 0.001754
B1000 0.004064 0.388329 0.322403 0.317354 0.416522 0.534771
B1000 0.835077 0.766904 0.789664 0.817878 0.832039 0.814092
B1000 0.000000 0.000000 0.000000 0.000000 0.000000 0.000000
B1000 0.000000 0.000000 0.000000 0.000000 0.000000 0.000000
B1000 0.000000 0.380543 0.442405 0.512610 0.590879 0.642944
B1000 0.837259 0.770241 0.780637 0.786006 0.790413 0.795867
B1000 0.000000 0.000000 0.000000 0.000000 0.000000 0.000000
B1000 0.000000 0.000000 0.000000 0.000000 0.000000 0.000000
B1000 0.000000 0.319322 0.274787 0.395837 0.480374 0.591114
B1000 0.852318 0.776166 0.789707 0.802905 0.810327 0.779418
B1000 0.000000 0.000000 0.000000 0.000000 0.000000 0.000000
B1000 0.000000 0.000000 0.000000 0.000000 0.000000 0.000000
B1000 0.000000 0.000000 0.000000 0.000000 0.000000 0.000000
B1000 0.000000 0.000000 0.000000 0.000000 0.000000 0.000000
B1000 0.000000 0.000000 0.000000 0.000000 0.000000 0.000000
B1000 0.000000 0.000000 0.000000 0.000000 0.000000 0.000000
B1000 0.000000 0.000000 0.000000 0.000000 0.000000 0.000000
B1000 0.000000 0.000000 0.000000 0.000000 0.000000 0.000000
B1000 0.000000 0.000000 0.000000 0.000000 0.000000 0.000000
B1000 0.039637 0.039038 0.038418 0.038076 0.037669 0.037284
B1000 0.031038 0.777856 0.781086 0.670667 0.545188 0.521252
B1000 0.825216 0.803867 0.833258 0.863762 0.880190 0.879249
B1000 0.000000 0.000000 0.000000 0.000000 0.000000 0.000000
B1000 0.000000 0.000000 0.000000 0.000000 0.000000 0.000000
B1000 0.000000 0.539070 0.633810 0.747524 0.812488 0.864446
B1000 0.922950 0.938715 0.949432 0.948170 0.944277 0.930972
B1000 0.000000 0.000000 0.000000 0.000000 0.000000 0.000000
B1000 0.000000 0.000000 0.000000 0.000000 0.000000 0.000000
B1000 0.000000 0.581360 0.719588 0.794284 0.846863 0.885987
B1000 0.940106 0.951379 0.960406 0.961304 0.952876 0.940598
B1000 0.000000 0.000000 0.000000 0.000000 0.000000 0.000000
B1000 0.000000 0.000000 0.000000 0.000000 0.000000 0.000000
B1000 0.000000 0.412159 0.520974 0.663479 0.776573 0.822563
B1000 0.935999 0.891591 0.895121 0.902201 0.891185 0.891655
B1000 0.000000 0.000000 0.000000 0.000000 0.000000 0.000000
B1000 0.000000 0.000000 0.000000 0.000000 0.000000 0.000000
B1000 0.000000 0.264006 0.295386 0.374553 0.432052 0.508225
B1000 0.755032 0.620698 0.641340 0.679929 0.641212 0.582772
B1000 0.000000 0.000000 0.000000 0.000000 0.000000 0.000000
B1000 0.000000 0.000000 0.000000 0.000000 0.000000 0.000000
B1000 0.000000 0.000000 0.000000 0.000000 0.000000 0.000000
B1000 0.000000 0.000000 0.000000 0.000000 0.000000 0.000000
B1000 0.000000 0.000000 0.000000 0.000000 0.000000 0.000000
B1000 0.000000 0.000000 0.000000 0.000000 0.000000 0.000000
B1000 0.000000 0.000000 0.000000 0.000000 0.000000 0.000000
B1000 0.000000 0.000000 0.000000 0.000000 0.000000 0.000000
B1000 0.000000 0.000000 0.000000 0.000000 0.000000 0.000000
B1000 0.068515 0.069734 0.071231 0.072322 0.073371 0.073905
B1000 0.051744 0.765407 0.568440 0.471304 0.388008 0.349184
B1000 0.592440 0.513594 0.591243 0.646110 0.618922 0.610986
B1000 0.000000 0.000000 0.000000 0.000000 0.000000 0.000000
B1000 0.000000 0.000000 0.000000 0.000000 0.003016 0.008193
B1000 0.010075 0.424950 0.356243 0.328884 0.292905 0.285418
B1000 0.382233 0.400543 0.443560 0.486085 0.520803 0.449464
B1000 0.000000 0.000000 0.000000 0.000000 0.000000 0.000000
B1000 0.000000 0.000000 0.000000 0.003679 0.009348 0.013883
B1000 0.012834 0.382810 0.325312 0.306509 0.282701 0.276305
B1000 0.364564 0.327066 0.374061 0.415196 0.424223 0.383452
B1000 0.000000 0.000000 0.000000 0.000000 0.000000 0.000000
B1000 0.000000 0.000000 0.000000 0.001262 0.005669 0.010353
B1000 0.010289 0.376842 0.305226 0.265032 0.314253 0.382468
B1000 0.557231 0.500888 0.545958 0.566729 0.559606 0.534279
B1000 0.000000 0.000000 0.000000 0.000000 0.000000 0.000000
B1000 0.000000 0.000000 0.000000 0.000000 0.000000 0.000000
B1000 0.003037 0.347130 0.265802 0.287921 0.355238 0.410533
B1000 0.692443 0.588954 0.635179 0.694945 0.732294 0.642966
B1000 0.000000 0.000000 0.000000 0.000000 0.000000 0.000000
B1000 0.000000 0.000000 0.000000 0.000000 0.000000 0.000000
B1000 0.000000 0.000000 0.000000 0.000000 0.000000 0.000000
B1000 0.000000 0.000000 0.000000 0.000000 0.000000 0.000000
B1000 0.000000 0.000000 0.000000 0.000000 0.000000 0.000000
B1000 0.000000 0.000000 0.000000 0.000000 0.000000 0.000000
B1000 0.000000 0.000000 0.000000 0.000000 0.000000 0.000000
B1000 0.000000 0.000000 0.000000 0.000000 0.000000 0.000000
B1000 0.000000 0.000000 0.000000 0.000000 0.000000 0.000000
B1000 0.075659 0.081627 0.086055 0.090098 0.094077 0.096965
B1000 0.066354 0.808809 0.739887 0.637810 0.530001 0.487925
B1000 0.722475 0.451860 0.372372 0.360992 0.361313 0.417998
B1000 0.000000 0.003765 0.007508 0.016599 0.023894 0.031359
B1000 0.038247 0.042054 0.047124 0.052408 0.057092 0.061627
B1000 0.039680 0.458812 0.389292 0.364543 0.337077 0.320841
B1000 0.408650 0.292605 0.281717 0.323814 0.341227 0.293696
B1000 0.000000 0.000000 0.000000 0.000000 0.000000 0.000000
B1000 0.000000 0.002310 0.006845 0.011102 0.015294 0.018995
B1000 0.015765 0.402212 0.319194 0.272348 0.326467 0.402169
B1000 0.620313 0.550728 0.629404 0.661704 0.666688 0.622922
B1000 0.000000 0.000000 0.000000 0.000000 0.000000 0.000000
B1000 0.000000 0.000000 0.000000 0.000000 0.000000 0.000000
B1000 0.000000 0.324563 0.284070 0.381570 0.488289 0.610173
B1000 0.872147 0.803889 0.818263 0.856318 0.871676 0.858157
B1000 0.000000 0.000000 0.000000 0.000000 0.000000 0.000000
B1000 0.000000 0.000000 0.000000 0.000000 0.000000 0.000000
B1000 0.000000 0.317098 0.286744 0.367837 0.438598 0.527263
B1000 0.788038 0.695373 0.719780 0.756658 0.765257 0.679480
B1000 0.000000 0.000000 0.000000 0.000000 0.000000 0.000000
B1000 0.000000 0.000000 0.000000 0.000000 0.000000 0.000000
B1000 0.000000 0.000000 0.000000 0.000000 0.000000 0.000000
B1000 0.000000 0.000000 0.000000 0.000000 0.000000 0.000000
B1000 0.000000 0.000000 0.000000 0.000000 0.000000 0.000000
B1000 0.000000 0.000000 0.000000 0.000000 0.000000 0.000000
B1000 0.000000 0.000000 0.000000 0.000000 0.000000 0.000000
B1000 0.000000 0.000000 0.000000 0.000000 0.000000 0.000000
B1000 0.000000 0.000000 0.000000 0.000000 0.000000 0.000000
B1000 0.011722 0.013412 0.015016 0.016535 0.017990 0.019380
B1000 0.017840 0.705063 0.595157 0.500439 0.751759 0.828980
B1000 0.885153 0.904768 0.928640 0.937710 0.934544 0.915677
B1000 0.000000 0.000000 0.000000 0.000000 0.000000 0.000000
B1000 0.000000 0.000000 0.000000 0.000000 0.000000 0.000000
B1000 0.000000 0.763460 0.837815 0.912811 0.951806 0.959250
B1000 0.952619 0.963422 0.975935 0.981754 0.974802 0.958887
B1000 0.000000 0.000000 0.000000 0.000000 0.000000 0.000000
B1000 0.000000 0.000000 0.000000 0.000000 0.000000 0.000000
B1000 0.000000 0.654174 0.778027 0.849687 0.883784 0.933924
B1000 0.950651 0.958416 0.970352 0.972983 0.966309 0.949603
B1000 0.000000 0.000000 0.000000 0.000000 0.000000 0.000000
B1000 0.000000 0.000000 0.000000 0.000000 0.000000 0.000000
B1000 0.000000 0.438170 0.621917 0.768722 0.842414 0.892083
B1000 0.951165 0.959422 0.971572 0.975144 0.967400 0.951871
B1000 0.000000 0.000000 0.000000 0.000000 0.000000 0.000000
B1000 0.000000 0.000000 0.000000 0.000000 0.000000 0.000000
B1000 0.000000 0.473657 0.650752 0.775717 0.832809 0.887313
B1000 0.948619 0.955229 0.935742 0.935571 0.921496 0.926694
B1000 0.000000 0.000000 0.000000 0.000000 0.000000 0.000000
B1000 0.000000 0.000000 0.000000 0.000000 0.000000 0.000000
B1000 0.000000 0.000000 0.000000 0.000000 0.000000 0.000000
B1000 0.000000 0.000000 0.000000 0.000000 0.000000 0.000000
B1000 0.000000 0.000000 0.000000 0.000000 0.000000 0.000000
B1000 0.000000 0.000000 0.000000 0.000000 0.000000 0.000000
B1000 0.000000 0.000000 0.000000 0.000000 0.000000 0.000000
B1000 0.000000 0.000000 0.000000 0.000000 0.000000 0.000000
B1000 0.000000 0.000000 0.000000 0.000000 0.000000 0.000000
B1000 0.002225 0.006524 0.011230 0.014802 0.018375 0.021605
B1000 0.020642 0.709042 0.598002 0.488096 0.667437 0.803611
B1000 0.882949 0.902116 0.928341 0.924811 0.923143 0.926458
B1000 0.000000 0.000000 0.000000 0.000000 0.000000 0.000000
B1000 0.000000 0.000000 0.000000 0.000000 0.000000 0.000000
B1000 0.000000 0.409784 0.575499 0.750112 0.797001 0.843355
B1000 0.931271 0.941154 0.950994 0.955913 0.948726 0.945496
B1000 0.000000 0.000000 0.000000 0.000000 0.000000 0.000000
B1000 0.000000 0.000000 0.000000 0.000000 0.000000 0.000000
B1000 0.000000 0.435838 0.571477 0.632591 0.780124 0.780594
B1000 0.937325 0.894885 0.909388 0.942758 0.947678 0.956962
B1000 0.000000 0.000000 0.000000 0.000000 0.000000 0.000000
B1000 0.000000 0.000000 0.000000 0.000000 0.000000 0.000000
B1000 0.000000 0.375409 0.499390 0.615200 0.633083 0.633190
B1000 0.868960 0.811162 0.828959 0.856724 0.865922 0.865516
B1000 0.000000 0.000000 0.000000 0.000000 0.000000 0.000000
B1000 0.000000 0.000000 0.000000 0.000000 0.000000 0.000000
B1000 0.000000 0.298809 0.393805 0.474106 0.622644 0.645533
B1000 0.787931 0.738647 0.751524 0.785257 0.767717 0.761193
B1000 0.000000 0.000000 0.000000 0.000000 0.000000 0.000000
B1000 0.000000 0.000000 0.000000 0.000000 0.000000 0.000000
B1000 0.000000 0.000000 0.000000 0.000000 0.000000 0.000000
B1000 0.000000 0.000000 0.000000 0.000000 0.000000 0.000000
B1000 0.000000 0.000000 0.000000 0.000000 0.000000 0.000000
B1000 0.000000 0.000000 0.000000 0.000000 0.000000 0.000000
B1000 0.000000 0.000000 0.000000 0.000000 0.000000 0.000000
B1000 0.000000 0.000000 0.000000 0.000000 0.000000 0.000000
B1000 0.000000 0.000000 0.000000 0.000000 0.000000 0.000000
B1000 0.026525 0.029391 0.032236 0.034418 0.036878 0.038931
B1000 0.032215 0.710732 0.608206 0.510449 0.413741 0.403452
B1000 0.704101 0.584740 0.633404 0.712101 0.717299 0.741107
B1000 0.000000 0.000000 0.000000 0.000000 0.000000 0.000000
B1000 0.000000 0.000000 0.000000 0.000000 0.000000 0.001562
B1000 0.004663 0.418212 0.343729 0.312926 0.325932 0.371901
B1000 0.515925 0.460331 0.491797 0.512974 0.516952 0.509273
B1000 0.000000 0.000000 0.000000 0.000000 0.000000 0.000000
B1000 0.000000 0.000000 0.000000 0.003059 0.008920 0.014546
B1000 0.013562 0.350574 0.297397 0.261760 0.316199 0.360842
B1000 0.581745 0.521038 0.572697 0.629789 0.614259 0.606751
B1000 0.000000 0.000000 0.000000 0.000000 0.000000 0.000000
B1000 0.000000 0.000000 0.000000 0.000000 0.000000 0.003337
B1000 0.005562 0.330167 0.272391 0.332114 0.353847 0.433913
B1000 0.683095 0.620441 0.705833 0.766925 0.767246 0.757150
B1000 0.000000 0.000000 0.000000 0.000000 0.000000 0.000000
B1000 0.000000 0.000000 0.000000 0.000000 0.000000 0.000000
B1000 0.000000 0.290487 0.383730 0.497166 0.621618 0.732807
B1000 0.858329 0.824531 0.845537 0.846392 0.833772 0.848040
B1000 0.000000 0.000000 0.000000 0.000000 0.000000 0.000000
B1000 0.000000 0.000000 0.000000 0.000000 0.000000 0.000000
B1000 0.000000 0.000000 0.000000 0.000000 0.000000 0.000000