[TITLE]

[JUNCTIONS]
;ID                      Elevation       Demand Pattern                 
 NODE0                   8.2020997375    15850.323141 B1009                      ;
 NODE1                              0               0                            ;
 NODE2                              0               0                            ;
 NODE3                              0               0                            ;
 NODE4                              0               0                            ;
 NODE5                              0               0                            ;
 NODE6                              0               0                            ;
 NODE7                   8.2020997375    15850.323141 B1004                      ;
 NODE8                              0               0                            ;
 NODE9                   8.2020997375    15850.323141 B1014                      ;
 NODE10                             0               0                            ;
 NODE11                             0               0                            ;
 NODE12                  8.2020997375    15850.323141 B1017                      ;
 NODE13                  8.2020997375    15850.323141 B1015                      ;
 NODE14                             0               0                            ;
 NODE15                             0               0                            ;
 NODE16                             0               0                            ;
 NODE17                             0               0                            ;
 NODE18                             0               0                            ;
 NODE19                             0               0                            ;
 NODE20                  8.2020997375    15850.323141 B1001                      ;
 NODE21                             0               0                            ;
 NODE22                             0               0                            ;
 NODE23                             0               0                            ;
 NODE24                             0               0                            ;
 NODE25                  8.2020997375    15850.323141 B1010                      ;
 NODE26                  8.2020997375    15850.323141 B1012                      ;
 NODE27                             0               0                            ;
 NODE28                  8.2020997375    15850.323141 B1005                      ;
 NODE29                  8.2020997375    15850.323141 B1011                      ;
 NODE30                             0               0                            ;
 NODE31                             0               0                            ;
 NODE32                  8.2020997375    15850.323141 B1013                      ;
 NODE33                  8.2020997375    15850.323141 B1007                      ;
 NODE34                             0               0                            ;
 NODE35                             0               0                            ;
 NODE36                             0               0                            ;
 NODE37                  8.2020997375    15850.323141 B1006                      ;
 NODE38                             0               0                            ;
 NODE39                  8.2020997375    15850.323141 B1003                      ;
 NODE40                             0               0                            ;
 NODE41                             0               0                            ;
 NODE42                  8.2020997375    15850.323141 B1000                      ;
 NODE43                  8.2020997375    15850.323141 B1002                      ;
 NODE44                             0               0                            ;
 NODE45                             0               0                            ;
 NODE46                             0               0                            ;
 NODE47                             0               0                            ;
 NODE48                  8.2020997375    15850.323141 B1008                      ;
 NODE49                             0               0                            ;
 NODE50                             0               0                            ;

[RESERVOIRS]
;ID                                   Head                  Pattern
 NODE51                   3.280839895                reservoir   ;

[TANKS]
;ID                              Elevation           Init Level            Min Level            Max Level             Diameter           Min Volume Volume Curve        

[PIPES]
;ID                   Node1                Node2                              Length             Diameter            Roughness           Minor Loss               Status
 PIPE0                NODE0                NODE22                  83.294615406   0.82594307019             100               0                 Open   ;
 PIPE1                NODE1                NODE31                  10.058406782     1.430575335             100               0                 Open   ;
 PIPE2                NODE1                NODE25                  79.213162652   0.82594302383             100               0                 Open   ;
 PIPE3                NODE1                NODE24                  202.33800873    1.6518861404             100               0                 Open   ;
 PIPE4                NODE2                NODE34                  72.773806615    1.4305752814             100               0                 Open   ;
 PIPE5                NODE2                NODE11                  31.285323192    1.4305752814             100               0                 Open   ;
 PIPE6                NODE3                NODE18                  173.83988924   0.82594307019             100               0                 Open   ;
 PIPE7                NODE3                NODE50                  131.37344196   0.82594307019             100               0                 Open   ;
 PIPE8                NODE4                NODE31                  119.46539142    1.1680598916             100               0                 Open   ;
 PIPE9                NODE4                NODE30                  109.27656067    1.1680598916             100               0                 Open   ;
 PIPE10               NODE5                NODE21                  33.208635883   0.82594307019             100               0                 Open   ;
 PIPE11               NODE5                NODE49                  182.92116761   0.82594307019             100               0                 Open   ;
 PIPE12               NODE6                NODE38                  132.36370701    2.3361197832             100               0                 Open   ;
 PIPE13               NODE6                NODE15                  217.73917706    2.3361197832             100               0                 Open   ;
 PIPE14               NODE6                NODE19                  163.31266989    3.3037722808             100               0                 Open   ;
 PIPE15               NODE7                NODE38                  88.904651731   0.82594307019             100               0                 Open   ;
 PIPE16               NODE8                NODE31                  34.055200051   0.82594307019             100               0                 Open   ;
 PIPE17               NODE8                NODE28                  127.31263442   0.82594307019             100               0                 Open   ;
 PIPE18               NODE9                NODE41                  46.983948736   0.82594307019             100               0                 Open   ;
 PIPE19               NODE10               NODE21                  128.75130345   0.82594302383             100               0                 Open   ;
 PIPE20               NODE10               NODE34                  207.83616558    1.1680598916             100               0                 Open   ;
 PIPE21               NODE10               NODE42                  136.09028631   0.82594307019             100               0                 Open   ;
 PIPE22               NODE11               NODE46                  38.416646786    1.4305752814             100               0                 Open   ;
 PIPE23               NODE12               NODE23                  78.473543049   0.82594307019             100               0                 Open   ;
 PIPE24               NODE13               NODE49                  56.733856273   0.82594307019             100               0                 Open   ;
 PIPE25               NODE14               NODE33                  84.355697296   0.82594302383             100               0                 Open   ;
 PIPE26               NODE14               NODE47                  214.01800382   0.82594302383             100               0                 Open   ;
 PIPE27               NODE15               NODE37                  60.849029089   0.82594307019             100               0                 Open   ;
 PIPE28               NODE15               NODE46                  43.703277608    2.1852399433             100               0                 Open   ;
 PIPE29               NODE16               NODE36                  136.92605951    1.1680598916             100               0                 Open   ;
 PIPE30               NODE16               NODE23                  185.73106146    1.1680598916             100               0                 Open   ;
 PIPE31               NODE17               NODE48                  45.985102811   0.82594302383             100               0                 Open   ;
 PIPE32               NODE17               NODE30                  111.93383589   0.82594307019             100               0                 Open   ;
 PIPE33               NODE18               NODE45                  4.9569249076    1.1680598916             100               0                 Open   ;
 PIPE34               NODE18               NODE43                  41.722774534   0.82594307019             100               0                 Open   ;
 PIPE35               NODE19               NODE32                  67.790430362   0.82594307019             100               0                 Open   ;
 PIPE36               NODE20               NODE40                   50.14920134   0.82594307019             100               0                 Open   ;
 PIPE37               NODE22               NODE30                  111.49977009   0.82594307019             100               0                 Open   ;
 PIPE38               NODE23               NODE27                  108.58380335   0.82594302383             100               0                 Open   ;
 PIPE39               NODE24               NODE38                  128.16225293    2.1852399433             100               0                 Open   ;
 PIPE40               NODE24               NODE36                  126.88482421     1.430575335             100               0                 Open   ;
 PIPE41               NODE26               NODE35                  49.633708437   0.82594302383             100               0                 Open   ;
 PIPE42               NODE27               NODE47                  158.74038454   0.82594302383             100               0                 Open   ;
 PIPE43               NODE29               NODE36                  47.174522501   0.82594307019             100               0                 Open   ;
 PIPE44               NODE34               NODE40                  91.564972249   0.82594307019             100               0                 Open   ;
 PIPE45               NODE35               NODE41                  74.964731225     1.430575335             100               0                 Open   ;
 PIPE46               NODE35               NODE46                  59.645454908    1.6518861404             100               0                 Open   ;
 PIPE47               NODE39               NODE44                   29.61336895   0.82594307019             100               0                 Open   ;
 PIPE48               NODE41               NODE45                  43.476924577    1.1680598916             100               0                 Open   ;
 PIPE49               NODE44               NODE50                  140.24845135   0.82594307019             100               0                 Open   ;
 PIPE50               NODE51               NODE19                  4.6398082755    3.4054504854             100               0                 Open   ;

[PUMPS]
;ID                   Node1                Node2                Properties          

[VALVES]
;ID                   Node1                Node2                            Diameter Type              Setting           Minor Loss

[TAGS]
;type      name       tag       

[DEMANDS]
;ID        Demand     Pattern   

[STATUS]
;ID        Setting   
[PATTERNS]
;ID        Multipliers

B1014 0.000006 0.000007 0.000006 0.000006 0.000007 0.000008
B1014 0.000557 0.000656 0.000692 0.000585 0.000489 0.000605
B1014 0.000955 0.000882 0.000860 0.000873 0.000886 0.000926
B1014 0.000980 0.000979 0.000925 0.000024 0.000020 0.000012
B1014 0.000008 0.000006 0.000006 0.000006 0.000006 0.000006
B1014 0.000785 0.000555 0.000616 0.000580 0.000691 0.000795
B1014 0.000950 0.000885 0.000845 0.000852 0.000841 0.000896
B1014 0.000949 0.000964 0.000899 0.000023 0.000021 0.000012
B1014 0.000006 0.000005 0.000009 0.000009 0.000006 0.000025
B1014 0.000615 0.000511 0.000768 0.000629 0.000613 0.000768
B1014 0.000951 0.000913 0.000893 0.000898 0.000890 0.000918
B1014 0.000970 0.000979 0.000928 0.000029 0.000017 0.000013
B1014 0.000006 0.000005 0.000009 0.000009 0.000006 0.000025
B1014 0.000760 0.000813 0.000831 0.000807 0.000644 0.000779
B1014 0.000904 0.000704 0.000599 0.000635 0.000576 0.000698
B1014 0.000924 0.000938 0.000777 0.000029 0.000017 0.000013
B1014 0.000006 0.000005 0.000010 0.000010 0.000977 0.000992
B1014 0.000851 0.000873 0.000876 0.000847 0.000810 0.000780
B1014 0.000532 0.000638 0.000652 0.000640 0.000642 0.000590
B1014 0.000799 0.000866 0.000524 0.000029 0.000017 0.000013
B1014 0.000006 0.000005 0.000983 0.000975 0.000965 0.000980
B1014 0.000879 0.000898 0.000894 0.000846 0.000795 0.000786
B1014 0.000547 0.000603 0.000537 0.000569 0.000622 0.000577
B1014 0.000739 0.000836 0.000524 0.000029 0.000017 0.000013
B1014 0.000006 0.000005 0.000980 0.000974 0.000964 0.000980
B1014 0.000888 0.000901 0.000892 0.000842 0.000796 0.000767
B1014 0.000516 0.000537 0.000546 0.000548 0.000588 0.000547
B1014 0.000781 0.000852 0.000496 0.000029 0.000017 0.000013
B1014 0.000006 0.000007 0.000980 0.000974 0.000967 0.000965
B1014 0.000843 0.000874 0.000891 0.000860 0.000826 0.000801
B1014 0.000551 0.000663 0.000687 0.000672 0.000681 0.000625
B1014 0.000545 0.000681 0.000551 0.000024 0.000020 0.000012
B1014 0.000984 0.000973 0.000965 0.000959 0.000953 0.000949
B1014 0.000864 0.000898 0.000904 0.000889 0.000872 0.000855
B1014 0.000687 0.000665 0.000643 0.000644 0.000675 0.000627
B1014 0.000479 0.000525 0.000550 0.000023 0.000021 0.000012
B1014 0.000978 0.000968 0.000966 0.000960 0.000950 0.000967
B1014 0.000907 0.000850 0.000895 0.000860 0.000835 0.000814
B1014 0.000643 0.000653 0.000631 0.000588 0.000632 0.000588
B1014 0.000486 0.000621 0.000530 0.000029 0.000017 0.000013
B1014 0.000007 0.000973 0.000970 0.000963 0.000954 0.000969
B1014 0.000903 0.000908 0.000889 0.000842 0.000766 0.000774
B1014 0.000513 0.000488 0.000545 0.000543 0.000579 0.000550
B1014 0.000675 0.000801 0.000528 0.000029 0.000017 0.000013
B1014 0.000983 0.000969 0.000964 0.000955 0.000943 0.000956
B1014 0.000920 0.000929 0.000922 0.000897 0.000823 0.000854
B1014 0.000774 0.000778 0.000767 0.000768 0.000783 0.000777
B1014 0.000635 0.000590 0.000752 0.001000 0.000980 0.000965
B1014 0.000950 0.000940 0.000936 0.000928 0.000918 0.000933
B1014 0.000934 0.000943 0.000926 0.000877 0.000827 0.000818
B1014 0.000618 0.000644 0.000600 0.000633 0.000687 0.000636
B1014 0.000494 0.000449 0.000565 0.000030 0.000017 0.000987
B1014 0.000971 0.000963 0.000960 0.000953 0.000943 0.000960
B1014 0.000905 0.000908 0.000893 0.000862 0.000839 0.000818
B1014 0.000663 0.000772 0.000768 0.000759 0.000756 0.000711
B1014 0.000552 0.000503 0.000632 0.000030 0.000993 0.000977
B1014 0.000962 0.000954 0.000945 0.000939 0.000932 0.000929
B1014 0.000892 0.000915 0.000918 0.000893 0.000867 0.000849
B1014 0.000718 0.000788 0.000790 0.000778 0.000780 0.000756
B1014 0.000585 0.000528 0.000636 0.000025 0.000992 0.000974
B1014 0.000962 0.000954 0.000947 0.000942 0.000936 0.000934
B1014 0.000865 0.000886 0.000888 0.000873 0.000853 0.000836
B1014 0.000645 0.000759 0.000765 0.000748 0.000724 0.000671
B1014 0.000518 0.000479 0.000575 0.000023 0.000021 0.000983
B1014 0.000970 0.000960 0.000958 0.000951 0.000941 0.000957
B1014 0.000911 0.000832 0.000894 0.000853 0.000808 0.000788
B1014 0.000473 0.000588 0.000540 0.000535 0.000572 0.000542
B1014 0.000568 0.000739 0.000491 0.000029 0.000017 0.000013
B1014 0.000006 0.000983 0.000978 0.000972 0.000962 0.000978
B1014 0.000878 0.000887 0.000876 0.000828 0.000784 0.000758
B1014 0.000531 0.000516 0.000498 0.000483 0.000529 0.000494
B1014 0.000829 0.000906 0.000588 0.000029 0.000017 0.000013
B1014 0.000006 0.000005 0.000009 0.000010 0.000006 0.000999
B1014 0.000819 0.000835 0.000833 0.000798 0.000774 0.000739
B1014 0.000534 0.000515 0.000485 0.000471 0.000488 0.000583
B1014 0.000918 0.000946 0.000783 0.000029 0.000017 0.000013
B1014 0.000006 0.000005 0.000009 0.000009 0.000006 0.000025
B1014 0.000757 0.000802 0.000804 0.000776 0.000748 0.000703
B1014 0.000630 0.000582 0.000606 0.000592 0.000582 0.000536
B1014 0.000853 0.000925 0.000588 0.000029 0.000017 0.000013
B1014 0.000006 0.000005 0.000009 0.000009 0.000006 0.000025
B1014 0.000807 0.000823 0.000821 0.000778 0.000699 0.000616
B1014 0.000814 0.000537 0.000497 0.000527 0.000553 0.000703
B1014 0.000938 0.000954 0.000847 0.000029 0.000017 0.000013
B1014 0.000006 0.000007 0.000006 0.000007 0.000007 0.000008
B1014 0.000559 0.000662 0.000714 0.000664 0.000620 0.000590
B1014 0.000875 0.000611 0.000557 0.000598 0.000645 0.000793
B1014 0.000948 0.000950 0.000852 0.000024 0.000020 0.000012
B1014 0.000008 0.000006 0.000006 0.000006 0.000006 0.000006
B1014 0.000679 0.000777 0.000810 0.000794 0.000759 0.000682
B1014 0.000817 0.000522 0.000537 0.000537 0.000536 0.000571
B1014 0.000890 0.000929 0.000631 0.000023 0.000021 0.000012
B1014 0.000006 0.000005 0.000978 0.000969 0.000958 0.000971
B1014 0.000884 0.000902 0.000901 0.000880 0.000793 0.000813
B1014 0.000615 0.000617 0.000631 0.000634 0.000683 0.000668
B1014 0.000515 0.000592 0.000625 0.000030 0.000017 0.000986
B1014 0.000971 0.000962 0.000959 0.000953 0.000943 0.000958
B1014 0.000918 0.000930 0.000921 0.000891 0.000827 0.000806
B1014 0.000556 0.000582 0.000548 0.000613 0.000639 0.000612
B1014 0.000495 0.000655 0.000527 0.000029 0.000017 0.000013
B1014 0.000006 0.000005 0.000980 0.000974 0.000965 0.000982
B1014 0.000871 0.000878 0.000863 0.000796 0.000606 0.000636
B1014 0.000850 0.000619 0.000579 0.000666 0.000718 0.000771
B1014 0.000944 0.000959 0.000863 0.000029 0.000017 0.000013
B1014 0.000006 0.000005 0.000009 0.000009 0.000006 0.000025
B1014 0.000637 0.000736 0.000766 0.000692 0.000634 0.000589
B1014 0.000838 0.000557 0.000506 0.000518 0.000550 0.000669
B1014 0.000932 0.000947 0.000803 0.000029 0.000017 0.000013
B1014 0.000006 0.000005 0.000010 0.000010 0.000976 0.000990
B1014 0.000845 0.000869 0.000876 0.000822 0.000689 0.000770
B1014 0.000833 0.000572 0.000491 0.000565 0.000560 0.000580
B1014 0.000910 0.000936 0.000705 0.000029 0.000017 0.000013
B1014 0.000006 0.000007 0.000006 0.000007 0.000982 0.000980
B1014 0.000801 0.000844 0.000863 0.000836 0.000807 0.000789
B1014 0.000535 0.000479 0.000479 0.000518 0.000534 0.000627
B1014 0.000937 0.000940 0.000783 0.000024 0.000020 0.000012
B1014 0.000008 0.000006 0.000006 0.000006 0.000006 0.000006
B1014 0.000708 0.000778 0.000801 0.000791 0.000765 0.000723
B1014 0.000665 0.000558 0.000539 0.000576 0.000567 0.000667
B1014 0.000930 0.000949 0.000809 0.000023 0.000021 0.000012
B1014 0.000006 0.000005 0.000009 0.000009 0.000006 0.000025
B1014 0.000547 0.000491 0.000640 0.000561 0.000501 0.000576
B1014 0.000941 0.000857 0.000832 0.000862 0.000883 0.000920
B1014 0.000974 0.000985 0.000939 0.000029 0.000017 0.000013
B1014 0.000006 0.000005 0.000009 0.000009 0.000006 0.000025
B1014 0.000846 0.000557 0.000591 0.000578 0.000735 0.000817
B1014 0.000958 0.000933 0.000908 0.000907 0.000907 0.000930
B1014 0.000978 0.000987 0.000940 0.000029 0.000017 0.000013
B1014 0.000006 0.000005 0.000009 0.000009 0.000006 0.000025
B1014 0.000694 0.000642 0.000704 0.000607 0.000689 0.000795
B1014 0.000950 0.000919 0.000895 0.000897 0.000893 0.000917
B1014 0.000968 0.000977 0.000925 0.000029 0.000017 0.000013
B1014 0.000006 0.000005 0.000009 0.000009 0.000006 0.000025
B1014 0.000693 0.000789 0.000813 0.000768 0.000662 0.000611
B1014 0.000921 0.000807 0.000770 0.000781 0.000773 0.000823
B1014 0.000941 0.000951 0.000833 0.000029 0.000017 0.000013
B1014 0.000006 0.000005 0.000010 0.000978 0.000966 0.000980
B1014 0.000871 0.000890 0.000903 0.000869 0.000828 0.000809
B1014 0.000583 0.000555 0.000550 0.000572 0.000623 0.000621
B1014 0.000589 0.000742 0.000571 0.000030 0.000017 0.000013
B1014 0.000984 0.000976 0.000968 0.000964 0.000958 0.000957
B1014 0.000862 0.000892 0.000890 0.000840 0.000789 0.000747
B1014 0.000601 0.000468 0.000443 0.000448 0.000482 0.000488
B1014 0.000857 0.000917 0.000605 0.000024 0.000020 0.000012
B1014 0.000008 0.000006 0.000006 0.000982 0.000974 0.000969
B1014 0.000817 0.000851 0.000860 0.000829 0.000796 0.000747
B1014 0.000562 0.000540 0.000518 0.000518 0.000540 0.000529
B1014 0.000773 0.000849 0.000481 0.000023 0.000021 0.000012
B1014 0.000006 0.000005 0.000984 0.000977 0.000967 0.000984
B1014 0.000877 0.000868 0.000863 0.000809 0.000764 0.000692
B1014 0.000734 0.000487 0.000458 0.000473 0.000468 0.000544
B1014 0.000879 0.000936 0.000646 0.000029 0.000017 0.000013
B1014 0.000006 0.000005 0.000986 0.000978 0.000967 0.000982
B1014 0.000880 0.000898 0.000897 0.000862 0.000829 0.000809
B1014 0.000605 0.000638 0.000645 0.000648 0.000621 0.000615
B1014 0.000529 0.000660 0.000570 0.000030 0.000017 0.000013
B1014 0.000978 0.000969 0.000966 0.000959 0.000948 0.000965
B1014 0.000912 0.000925 0.000914 0.000881 0.000855 0.000833
B1014 0.000684 0.000614 0.000595 0.000597 0.000610 0.000599
B1014 0.000464 0.000549 0.000541 0.000029 0.000017 0.000013
B1014 0.000981 0.000971 0.000969 0.000962 0.000953 0.000969
B1014 0.000896 0.000901 0.000881 0.000829 0.000786 0.000754
B1014 0.000471 0.000536 0.000536 0.000525 0.000542 0.000532
B1014 0.000648 0.000796 0.000497 0.000029 0.000017 0.000013
B1014 0.000007 0.000979 0.000974 0.000967 0.000957 0.000973
B1014 0.000901 0.000907 0.000880 0.000833 0.000787 0.000760
B1014 0.000548 0.000517 0.000529 0.000529 0.000512 0.000525
B1014 0.000792 0.000857 0.000501 0.000029 0.000017 0.000013
B1014 0.000006 0.000983 0.000971 0.000965 0.000958 0.000955
B1014 0.000866 0.000902 0.000904 0.000861 0.000816 0.000794
B1014 0.000523 0.000533 0.000532 0.000543 0.000591 0.000580
B1014 0.000592 0.000773 0.000490 0.000024 0.000020 0.000012
B1014 0.000008 0.000006 0.000006 0.000980 0.000975 0.000972
B1014 0.000793 0.000826 0.000832 0.000809 0.000784 0.000706
B1014 0.000635 0.000522 0.000527 0.000505 0.000493 0.000538
B1014 0.000889 0.000937 0.000704 0.000023 0.000021 0.000012
B1014 0.000006 0.000005 0.000010 0.000983 0.000970 0.000984
B1014 0.000868 0.000872 0.000894 0.000864 0.000833 0.000811
B1014 0.000619 0.000758 0.000759 0.000755 0.000756 0.000725
B1014 0.000566 0.000541 0.000686 0.000030 0.000990 0.000973
B1014 0.000957 0.000949 0.000946 0.000938 0.000927 0.000943
B1014 0.000928 0.000935 0.000929 0.000894 0.000871 0.000843
B1014 0.000706 0.000700 0.000685 0.000674 0.000668 0.000639
B1014 0.000497 0.000447 0.000559 0.000030 0.000017 0.000013
B1014 0.000977 0.000968 0.000966 0.000961 0.000952 0.000969
B1014 0.000887 0.000893 0.000867 0.000811 0.000762 0.000686
B1014 0.000507 0.000454 0.000431 0.000437 0.000456 0.000465
B1014 0.000802 0.000872 0.000522 0.000029 0.000017 0.000013
B1014 0.000006 0.000005 0.000010 0.000980 0.000969 0.000985
B1014 0.000862 0.000871 0.000834 0.000789 0.000596 0.000633
B1014 0.000869 0.000660 0.000625 0.000762 0.000793 0.000817
B1014 0.000948 0.000958 0.000850 0.000029 0.000017 0.000013
B1014 0.000006 0.000005 0.000010 0.000984 0.000971 0.000985
B1014 0.000874 0.000893 0.000890 0.000834 0.000794 0.000769
B1014 0.000688 0.000469 0.000464 0.000544 0.000524 0.000550
B1014 0.000793 0.000856 0.000524 0.000029 0.000017 0.000013
B1014 0.000006 0.000007 0.000977 0.000972 0.000967 0.000965
B1014 0.000848 0.000876 0.000875 0.000824 0.000770 0.000675
B1014 0.000796 0.000508 0.000513 0.000540 0.000566 0.000639
B1014 0.000937 0.000940 0.000779 0.000024 0.000020 0.000012
B1014 0.000008 0.000006 0.000006 0.000006 0.000006 0.000006
B1014 0.000745 0.000786 0.000769 0.000694 0.000507 0.000610
B1014 0.000952 0.000833 0.000770 0.000745 0.000733 0.000807
B1014 0.000939 0.000956 0.000875 0.000023 0.000021 0.000012
B1014 0.000006 0.000005 0.000009 0.000009 0.000006 0.000025
B1014 0.000610 0.000539 0.000641 0.000522 0.000685 0.000838
B1014 0.000967 0.000945 0.000928 0.000927 0.000926 0.000943
B1014 0.000989 0.000998 0.000954 0.000029 0.000017 0.000013
B1014 0.000006 0.000005 0.000009 0.000009 0.000006 0.000025
B1014 0.000928 0.000714 0.000789 0.000865 0.000909 0.000921
B1014 0.000987 0.000972 0.000952 0.000950 0.000946 0.000962
B1014 0.001001 0.001007 0.000963 0.000029 0.000017 0.000013
B1014 0.000006 0.000005 0.000009 0.000009 0.000006 0.000025
B1014 0.000710 0.000690 0.000765 0.000647 0.000753 0.000834
B1014 0.000953 0.000919 0.000899 0.000904 0.000899 0.000914
B1014 0.000965 0.000974 0.000919 0.000029 0.000017 0.000013
B1014 0.000006 0.000005 0.000009 0.000009 0.000006 0.000025
B1014 0.000734 0.000803 0.000805 0.000746 0.000578 0.000774
B1014 0.000950 0.000917 0.000902 0.000906 0.000900 0.000918
B1014 0.000969 0.000978 0.000927 0.000029 0.000017 0.000013
B1014 0.000006 0.000005 0.000009 0.000009 0.000006 0.000025
B1014 0.000721 0.000799 0.000770 0.000671 0.000604 0.000758
B1014 0.000948 0.000906 0.000838 0.000839 0.000825 0.000875
B1014 0.000950 0.000961 0.000902 0.000029 0.000017 0.000013
B1014 0.000006 0.000007 0.000006 0.000007 0.000007 0.000008
B1014 0.000759 0.000810 0.000844 0.000810 0.000775 0.000711
B1014 0.000805 0.000538 0.000561 0.000552 0.000559 0.000545
B1014 0.000907 0.000926 0.000680 0.000024 0.000020 0.000012
B1014 0.000008 0.000006 0.000006 0.000006 0.000976 0.000972
B1014 0.000806 0.000849 0.000823 0.000782 0.000584 0.000537
B1014 0.000948 0.000860 0.000838 0.000913 0.000900 0.000921
B1014 0.000961 0.000974 0.000911 0.000023 0.000021 0.000012
B1014 0.000006 0.000005 0.000009 0.000009 0.000006 0.000025
B1014 0.000705 0.000644 0.000699 0.000580 0.000689 0.000823
B1014 0.000965 0.000933 0.000921 0.000923 0.000924 0.000943
B1014 0.000982 0.000989 0.000941 0.000029 0.000017 0.000013
B1014 0.000006 0.000005 0.000009 0.000009 0.000006 0.000025
B1014 0.000623 0.000743 0.000761 0.000635 0.000561 0.000718
B1014 0.000944 0.000909 0.000885 0.000893 0.000899 0.000920
B1014 0.000965 0.000974 0.000920 0.000029 0.000017 0.000013
B1014 0.000006 0.000005 0.000009 0.000009 0.000006 0.000025
B1014 0.000700 0.000790 0.000782 0.000738 0.000609 0.000581
B1014 0.000927 0.000839 0.000808 0.000858 0.000869 0.000913
B1014 0.000959 0.000969 0.000913 0.000029 0.000017 0.000013
B1014 0.000006 0.000005 0.000009 0.000010 0.000006 0.000025
B1014 0.000805 0.000833 0.000804 0.000763 0.000736 0.000720
B1014 0.000819 0.000586 0.000548 0.000687 0.000698 0.000773
B1014 0.000933 0.000945 0.000782 0.000029 0.000017 0.000013
B1014 0.000006 0.000005 0.000010 0.000010 0.000977 0.000992
B1014 0.000852 0.000874 0.000849 0.000797 0.000724 0.000657
B1014 0.000632 0.000548 0.000572 0.000491 0.000535 0.000524
B1014 0.000829 0.000901 0.000548 0.000029 0.000017 0.000013
B1014 0.000006 0.000007 0.000006 0.000978 0.000971 0.000969
B1014 0.000834 0.000867 0.000846 0.000798 0.000732 0.000716
B1014 0.000616 0.000541 0.000442 0.000509 0.000472 0.000569
B1014 0.000864 0.000918 0.000587 0.000024 0.000020 0.000012
B1014 0.000008 0.000006 0.000006 0.000975 0.000968 0.000963
B1014 0.000835 0.000862 0.000824 0.000795 0.000660 0.000575
B1014 0.000908 0.000716 0.000645 0.000789 0.000785 0.000834
B1014 0.000937 0.000952 0.000831 0.000023 0.000021 0.000012
B1014 0.000006 0.000005 0.000009 0.000009 0.000006 0.000025
B1014 0.000806 0.000747 0.000806 0.000765 0.000666 0.000614
B1014 0.000815 0.000533 0.000498 0.000539 0.000552 0.000675
B1014 0.000929 0.000942 0.000738 0.000029 0.000017 0.000013
B1014 0.000006 0.000005 0.000010 0.000984 0.000973 0.000988
B1014 0.000860 0.000881 0.000881 0.000847 0.000804 0.000772
B1014 0.000518 0.000636 0.000653 0.000628 0.000623 0.000591
B1014 0.000629 0.000785 0.000559 0.000029 0.000017 0.000013
B1014 0.000982 0.000971 0.000967 0.000959 0.000949 0.000963
B1014 0.000908 0.000919 0.000886 0.000830 0.000791 0.000703
B1014 0.000502 0.000516 0.000518 0.000505 0.000502 0.000493
B1014 0.000644 0.000785 0.000524 0.000029 0.000017 0.000013
B1014 0.000983 0.000972 0.000969 0.000962 0.000953 0.000968
B1014 0.000909 0.000880 0.000844 0.000789 0.000772 0.000680
B1014 0.000578 0.000488 0.000455 0.000469 0.000469 0.000530
B1014 0.000842 0.000913 0.000597 0.000029 0.000017 0.000013
B1014 0.000006 0.000005 0.000010 0.000010 0.000979 0.000994
B1014 0.000835 0.000811 0.000798 0.000709 0.000583 0.000456
B1014 0.000852 0.000709 0.000738 0.000709 0.000680 0.000793
B1014 0.000944 0.000955 0.000817 0.000029 0.000017 0.000013
B1014 0.000006 0.000007 0.000006 0.000981 0.000972 0.000968
B1014 0.000826 0.000846 0.000825 0.000788 0.000662 0.000504